FoamFile
{
  version 2.0;
  format ascii;
  class volScalarField;
  location "0";
  object k;
}

dimensions [0 2 -2 0 0 0 0];
internalField uniform 0.357075;

boundaryField
{
  top
  {
    type slip;
  }

  inlet
  {
    type fixedValue;
    value $internalField;
  }

  outlet
  {
    type zeroGradient;
  }

  ground
  {
    type kqRWallFunction;
    value uniform 0.357075;
  }

  cube
  {
    type kqRWallFunction;
    value uniform 0.357075;
  }

  sides
  {
    type slip;
  }
}

// vi: set ft=foam et sw=2 ts=2 sts=2:
