FoamFile
{
  version 2.0;
  format ascii;
  class volScalarField;
  object alpha15;
}

dimensions    [0 0 0 0 0 0 0];
internalField uniform 0;

boundaryField
{
  inlet
  {
    type fixedValue;
    value uniform 6.10279720042519e-12;
  }

  top
  {
    type fixedValue;
    value uniform 6.10279720042519e-12;
  }

  #include "include/alpha"
}

// vi: set ft=foam et sw=2 ts=2 sts=2:
