FoamFile
{
  version 2.0;
  format ascii;
  class volScalarField;
  object alpha2;
}

dimensions [0 0 0 0 0 0 0];
internalField uniform 0;

boundaryField
{
  inlet
  {
    type fixedValue;
    value uniform 7.65171854913607e-09;
  }

  top
  {
    type fixedValue;
    value uniform 7.65171854913607e-09;
  }

  #include "include/alpha"
}

// vi: set ft=foam et sw=2 ts=2 sts=2:
