FoamFile
{
  version 2.0;
  format ascii;
  class volScalarField;
  object alpha14;
}

dimensions    [0 0 0 0 0 0 0];
internalField uniform 0;

boundaryField
{
  inlet
  {
    type fixedValue;
    value uniform 8.39059691565224e-10;
  }

  top
  {
    type fixedValue;
    value uniform 8.39059691565224e-10;
  }

  #include "include/alpha"
}

// vi: set ft=foam et sw=2 ts=2 sts=2:
