FoamFile
{
  version 2.0;
  format ascii;
  class volVectorField;
  object U16;
}

dimensions [0 1 -1 0 0 0 0];
internalField uniform (1 0 0);

boundaryField
{
  inlet
  {
    type mapped;
    interpolationScheme cell;
    setAverage false;
    average (1 0 0);
    value uniform (1 -9.19406166329566 0);
  }

  top
  {
    type mapped;
    interpolationScheme cell;
    setAverage false;
    average (1 0 0);
    value uniform (1 -9.19406166329566 0);
  }

  #include "include/U"
}

// vi: set ft=foam et sw=2 ts=2 sts=2:
