FoamFile
{
  version 2.0;
  format ascii;
  class dictionary;
  location "constant";
  object transportProperties;
}

solveTD		no;
scalingFactor 0.5;
temp [ K ] 285.85;
Rh [ m s^-1 ] 1;

phases
(
  (
    0.0003 // d
    0.0141024469726926 // fhd
  )

  (
    0.0004 // d
    0.0141776154536167 // fhd
  )

  (
    0.0005 // d
    0.0227498031692402 // fhd
  )

  (
    0.0006 // d
    0.0322887759658429 // fhd
  )

  (
    0.0007 // d
    0.0422934023482615 // fhd
  )

  (
    0.0008 // d
    0.0521937135244597 // fhd
  )

  (
    0.0009 // d
    0.0613037986093192 // fhd
  )

  (
    0.001 // d
    0.102257071836287 // fhd
  )

  (
    0.0012 // d
    0.148806878747840 // fhd
  )

  (
    0.0014 // d
    0.142413785636521 // fhd
  )

  (
    0.0016 // d
    0.121803207472566 // fhd
  )

  (
    0.0018 // d
    0.0939756430403652 // fhd
  )

  (
    0.002 // d
    0.127093533658108 // fhd
  )

  (
    0.003 // d
    0.0243461560104565 // fhd
  )

  (
    0.004 // d
    0.000193995717407116 // fhd
  )

  (
    0.005 // d
    1.71821576338816e-07 // fhd
  )

  (
    0.006 // d
    1.54407856735827e-11 // fhd
  )
);

// vi: set ft=foam et sw=2 ts=2 sts=2:
