FoamFile
{
  version 2.0;
  format ascii;
  class dictionary;
  location "constant";
  object turbulenceProperties;
}

simulationType  RAS;

RAS
{
  RASModel kEpsilon;
  
  kEpsilonCoeffs
  {
    Cmu 0.09;
    C1 1.44;
    C2 1.92;
    sigmaEps 1.22;
  }

  turbulence on;
  printCoeffs on;
}

// vi: set ft=foam et sw=2 ts=2 sts=2:

