FoamFile
{
  version 2.0;
  format ascii;
  class dictionary;
  object decomposeParDict;
}

numberOfSubdomains 8;

method simple;
// method scotch;

simpleCoeffs
{
  n (4 1 2);
  delta 0.001;
}

// vi: set ft=foam et sw=2 ts=2 sts=2:
