FoamFile
{
  version 2.0;
  format ascii;
  class dictionary;
  location "system";
  object fvSchemes;
}

ddtSchemes
{
  default steadyState;
}

gradSchemes
{
  default Gauss linear;
}

divSchemes
{
  default Gauss linear;

  div(phi,alpha) bounded Gauss upwind;          
  div(phi,U) bounded Gauss upwind;
  div((-nutrain*T(grad(U)))) Gauss linear;
}

laplacianSchemes
{
  default         none;

  laplacian(nutrain,U) Gauss linear corrected;
}

interpolationSchemes
{
  default linear;
}

snGradSchemes
{
  default corrected;
}

// vi: set ft=foam et sw=2 ts=2 sts=2:
