/*--------------------------------*- C++ -*----------------------------------*\
| =========                 |                                                 |
| \\      /  F ield         | OpenFOAM: The Open Source CFD Toolbox           |
|  \\    /   O peration     | Version:  1.7.1                                 |
|   \\  /    A nd           | Web:      www.OpenFOAM.com                      |
|    \\/     M anipulation  |                                                 |
\*---------------------------------------------------------------------------*/
FoamFile
{
   version     2.0;
   format      ascii;
   class       volVectorField;
   object      U;
}
// * * * * * * * * * * * * * * * * * * * * * * * * * * * * * * * * * * * * * //


dimensions    [0 1 -1 0 0 0 0];


internalField uniform (1 0 0);


boundaryField
{
   inlet
   {
        type            mapped;
        interpolationScheme cell;
        setAverage      false;
        average         ( 1 0 0 );
       value   uniform (1 -8.80186167364389 0);
   }
   top
   {
        type            mapped;
        interpolationScheme cell;
        setAverage      false;
        average         ( 1 0 0 );
       value   uniform (1 -8.80186167364389 0);
   }

   outlet
   {
       type    zeroGradient;
   }
   ground
   {
       type    zeroGradient;
   }
   cube
   {
       type    zeroGradient;
   }
   sides
   {
        type            slip;
   }
}

// * * * * * * * * * * * * * * * * * * * * * * * * * * * * * * * * * * * * * //
