FoamFile
{
  version 2.0;
  format ascii;
  class dictionary;
  location "system";
  object fvSchemes;
}

ddtSchemes
{
  default steadyState;
}

gradSchemes
{
  default cellLimited Gauss linear 0.5;
}

divSchemes
{
  default none;

  div(phi,U) bounded Gauss linearUpwindV grad(U);
  div(phi,k) bounded Gauss upwind; 
  div(phi,epsilon) bounded Gauss upwind;
  div((nuEff*dev2(T(grad(U))))) Gauss linear;
}

laplacianSchemes
{
  default Gauss linear limited 0.5;
}

interpolationSchemes
{
  default linear;

  interpolate(U) linear;
}

snGradSchemes
{
  default limited 0.5;
}

// vi: set ft=foam et sw=2 ts=2 sts=2:
