FoamFile
{
  version 2.0;
  format ascii;
  class dictionary;
  location "system";
  object fvSolution;
}

solvers
{
  p
  {
    solver GAMG;
    smoother DIC;
    tolerance 1e-09;
    relTol 0.001;
    minIter 3;
    maxIter 100;
  }

  U
  {
    solver smoothSolver;
    smoother GaussSeidel;
    tolerance 1e-09;
    relTol 0.001;
    nSweeps 1;
    maxIter 100;
  }

  k
  {
    solver smoothSolver;
    smoother GaussSeidel;
    tolerance 1e-09;
    relTol 0.001;
    nSweeps 1;
    maxIter 100;
  }

  epsilon
  {
    solver smoothSolver;
    smoother GaussSeidel;
    tolerance 1e-09;
    relTol 0.001;
    nSweeps 1;
    maxIter 100;
  }

  R
  {
    solver PBiCG;
    preconditioner DILU;
    tolerance 1e-06;
    relTol 0.001;
  }

  nuTilda
  {
    solver PBiCG;
    preconditioner DILU;
    tolerance 1e-06;
    relTol 0.001;
  }
}

SIMPLE
{
  nNonOrthogonalCorrectors 0;

  residualControl
  {
    p 1e-6;
    U 1e-6;
    "(k|epsilon|omega)" 1e-6;
  }
}

potentialFlow
{
  nNonOrthogonalCorrectors 3;
}

relaxationFactors
{
  p 0.3;
  "(U|k|epsilon|R|nuTilda)" 0.7;
}

// vi: set ft=foam et sw=2 ts=2 sts=2:
