/*--------------------------------*- C++ -*----------------------------------*\
| =========                 |                                                 |
| \\      /  F ield         | OpenFOAM: The Open Source CFD Toolbox           |
|  \\    /   O peration     | Version:  2.0.0                                 |
|   \\  /    A nd           | Web:      www.OpenFOAM.com                      |
|    \\/     M anipulation  |                                                 |
\*---------------------------------------------------------------------------*/
FoamFile
{
    version     2.0;
    format      ascii;
    class       dictionary;
    location    "system";
    object      fvSolution;
}
// * * * * * * * * * * * * * * * * * * * * * * * * * * * * * * * * * * * * * //

solvers
{
    p                                  // linear equation system solver for p
    {
        solver          GAMG;           // very efficient multigrid solver
        tolerance       1e-09;          // solver finishes if either absolute
        relTol          0.001;          // tolerance is reached or the relative
                                        // tolerance here
        minIter         3;              // a minimum number of iterations
        maxIter         100;            // limitation of iterions number
        smoother        DIC;            // setting for GAMG
        nPreSweeps      1;              // 1 for p, set to 0 for all other!
        nPostSweeps     2;              // 2 is fine
        nFinestSweeps   2;              // 2 is fine
        scaleCorrection true;           // true is fine
        directSolveCoarsestLevel false; // false is fine
        cacheAgglomeration on;          // on is fine; set to off, if dynamic
                                        // mesh refinement is used!
        nCellsInCoarsestLevel 500;      // 500 is fine,
                                        // otherwise sqrt(number of cells)
        agglomerator    faceAreaPair;   // faceAreaPair is fine
        mergeLevels     1;              // 1 is fine
    }

    U                                   // linear equation system solver for U
    {
        solver          smoothSolver;   // solver type
        smoother        GaussSeidel;    // smoother type
        tolerance       1e-09;          // solver finishes if either absolute
        relTol          0.001;           // tolerance is reached or the relative
                                        // tolerance here
        nSweeps         1;              // setting for smoothSolver
        maxIter         100;            // limitation of iterations number
    }

    k
    {
        solver          smoothSolver;   // solver type
        smoother        GaussSeidel;    // smoother type
        tolerance       1e-09;          // solver finishes if either absolute
        relTol          0.001;           // tolerance is reached or the relative
                                        // tolerance here
        nSweeps         1;              // setting for smoothSolver
        maxIter         100;            // limitation of iterations number
    }

    epsilon
    {
        solver          smoothSolver;   // solver type
        smoother        GaussSeidel;    // smoother type
        tolerance       1e-09;          // solver finishes if either absolute
        relTol          0.001;           // tolerance is reached or the relative
                                        // tolerance here
        nSweeps         1;              // setting for smoothSolver
        maxIter         100;            // limitation of iterations number
    }

    R
    {
        solver          PBiCG;
        preconditioner  DILU;
        tolerance       1e-06;
//        relTol          0.1;
	relTol          0.001;
    }

    nuTilda
    {
        solver          PBiCG;
        preconditioner  DILU;
        tolerance       1e-06;
//        relTol          0.1;
	relTol          0.001;
    }
}

SIMPLE
{
    nNonOrthogonalCorrectors 0;

    residualControl
    {
        p               1e-6;
        U               1e-6;
        "(k|epsilon|omega)" 1e-6;
    }
}

potentialFlow
{
	nNonOrthogonalCorrectors 3;
}

relaxationFactors
{
    p               0.3;
    U               0.7;
    k               0.7;
    epsilon         0.7;
    R               0.7;
    nuTilda         0.7;
}


// ************************************************************************* //
